<?xml version="1.0" encoding="UTF-8"?>
<routes>

   <vType id="CarA" length="5" maxSpeed="22"/>
   
    <flow id="a11" color="1,1,0"  begin="0" end= "7200" vehsPerHour='250' type="CarA" departLane="random" departSpeed="max">
     <route edges="gneE1 gneE2"/>
    </flow>

    <flow id="a12" color="1,1,0"  begin="0" end= "7200" vehsPerHour='500' type="CarA" departLane="random" departSpeed="max">
     <route edges="gneE0 gneE2"/>
    </flow>
	
</routes>
